Version 4.1
SHEET 1 1460 892
WIRE -288 -544 -288 -560
WIRE -192 -544 -192 -560
WIRE -192 -544 -288 -544
WIRE -288 -528 -288 -544
WIRE -192 -480 -192 -544
WIRE 448 64 304 64
WIRE 528 64 448 64
WIRE -48 96 -176 96
WIRE 368 128 304 128
WIRE 368 144 368 128
WIRE 448 144 368 144
WIRE 528 368 528 64
WIRE -48 528 -176 528
WIRE 528 528 528 448
WIRE 528 528 304 528
FLAG -192 -480 0
FLAG -288 -640 +18V
FLAG -288 -448 -18V
FLAG -192 -640 3.3V
FLAG 448 144 0
FLAG -176 96 V
FLAG 48 688 3.3V
FLAG -176 528 I
SYMBOL voltage -288 -656 R0
WINDOW 123 0 0 Left 0
WINDOW 39 0 0 Left 0
SYMATTR InstName V1
SYMATTR Value 18
SYMBOL voltage -288 -544 R0
WINDOW 123 0 0 Left 0
WINDOW 39 0 0 Left 0
SYMATTR InstName V2
SYMATTR Value 18
SYMBOL voltage -192 -656 R0
WINDOW 123 0 0 Left 0
WINDOW 39 0 0 Left 0
SYMATTR InstName V3
SYMATTR Value 3.3
SYMBOL voltage 448 48 R0
WINDOW 3 24 66 Left 2
WINDOW 123 24 116 Left 2
WINDOW 39 0 0 Left 0
SYMATTR Value SINE(0 1 10k)
SYMATTR Value2 AC 1
SYMATTR InstName V4
SYMBOL Vamp 128 96 R0
SYMATTR InstName X1
SYMBOL Iamp 128 592 R0
SYMATTR InstName X3
SYMBOL res 512 352 R0
SYMATTR InstName R1
SYMATTR Value 1k
TEXT -520 -208 Left 2 ;.tran 1m
TEXT -512 -144 Left 2 !.ac dec 250 10 1Meg
