Version 4.1
SHEET 1 880 892
WIRE -288 -544 -288 -560
WIRE -192 -544 -192 -560
WIRE -192 -544 -288 -544
WIRE -288 -528 -288 -544
WIRE -192 -480 -192 -544
WIRE 528 -304 48 -304
WIRE 48 -224 48 -304
WIRE 528 16 528 -304
WIRE 528 16 368 16
WIRE 528 48 528 16
WIRE 368 64 368 16
WIRE 368 64 304 64
WIRE -48 96 -176 96
WIRE 368 128 304 128
WIRE 368 160 368 128
WIRE 528 160 528 128
WIRE 528 160 368 160
WIRE -48 528 -176 528
WIRE 528 528 528 160
WIRE 528 528 304 528
FLAG -192 -480 0
FLAG -288 -640 +18V
FLAG -288 -448 -18V
FLAG -192 -640 3.3V
FLAG 48 -144 0
FLAG 48 688 3.3V
FLAG -176 96 V
FLAG -176 528 I
SYMBOL voltage -288 -656 R0
WINDOW 123 0 0 Left 0
WINDOW 39 0 0 Left 0
SYMATTR InstName V1
SYMATTR Value 18
SYMBOL voltage -288 -544 R0
WINDOW 123 0 0 Left 0
WINDOW 39 0 0 Left 0
SYMATTR InstName V2
SYMATTR Value 18
SYMBOL voltage -192 -656 R0
WINDOW 123 0 0 Left 0
WINDOW 39 0 0 Left 0
SYMATTR InstName V3
SYMATTR Value 3.3
SYMBOL voltage 48 -240 R0
WINDOW 3 24 66 Left 2
WINDOW 123 24 116 Left 2
WINDOW 39 0 0 Left 0
SYMATTR InstName V4
SYMATTR Value SINE(0 1 10k)
SYMATTR Value2 AC 1
SYMBOL res 512 32 R0
SYMATTR InstName R1
SYMATTR Value 1k
SYMBOL fr\ this\ time\\Iamp 128 592 R0
SYMATTR InstName X2
TEXT -336 864 Left 2 !.tran 1m
