Version 4.1
SHEET 1 4008 1364
WIRE 176 -240 112 -240
WIRE 3600 -240 3552 -240
WIRE 464 -208 432 -208
WIRE 592 -208 544 -208
WIRE 3184 -208 3120 -208
WIRE 3296 -208 3264 -208
WIRE 1760 -192 1696 -192
WIRE 1872 -192 1840 -192
WIRE 2176 -192 2064 -192
WIRE 3552 -176 3488 -176
WIRE 3760 -176 3552 -176
WIRE -352 -16 -384 -16
WIRE 112 -16 112 -240
WIRE 112 -16 -272 -16
WIRE -880 16 -880 -16
WIRE -880 16 -944 16
WIRE -768 16 -768 -16
WIRE -768 16 -880 16
WIRE -656 16 -656 -16
WIRE -656 16 -768 16
WIRE 1232 32 1200 32
WIRE 1696 32 1696 -192
WIRE 1696 32 1312 32
WIRE 2336 32 2336 -160
WIRE 2336 32 2224 32
WIRE -880 48 -880 16
WIRE 752 48 640 48
WIRE 2656 48 2624 48
WIRE 3120 48 3120 -208
WIRE 3120 48 2736 48
WIRE 3760 48 3760 -176
WIRE 3760 48 3648 48
WIRE -384 64 -384 -16
WIRE 1200 112 1200 32
WIRE 2224 128 2224 32
WIRE 2240 128 2224 128
WIRE 2624 128 2624 48
WIRE 640 144 640 48
WIRE 656 144 640 144
WIRE 2336 144 2336 32
WIRE 2336 144 2304 144
WIRE 3648 144 3648 48
WIRE 3664 144 3648 144
WIRE 752 160 752 48
WIRE 752 160 720 160
WIRE 1696 160 1696 32
WIRE 2240 160 1696 160
WIRE 3760 160 3760 48
WIRE 3760 160 3728 160
WIRE 112 176 112 -16
WIRE 272 176 112 176
WIRE 592 176 592 -208
WIRE 592 176 352 176
WIRE 656 176 592 176
WIRE 3120 176 3120 48
WIRE 3664 176 3120 176
WIRE 1696 224 1696 160
WIRE 1824 224 1696 224
WIRE 1856 224 1824 224
WIRE 1968 224 1936 224
WIRE 2176 224 2176 -192
WIRE 2176 224 1968 224
WIRE 3120 240 3120 176
WIRE 3248 240 3120 240
WIRE 3280 240 3248 240
WIRE 3392 240 3360 240
WIRE 3600 240 3600 -240
WIRE 3600 240 3392 240
WIRE 1824 304 1824 224
WIRE 1856 304 1824 304
WIRE 1968 304 1968 224
WIRE 1968 304 1920 304
WIRE 3248 320 3248 240
WIRE 3280 320 3248 320
WIRE 3392 320 3392 240
WIRE 3392 320 3344 320
WIRE 112 352 112 176
WIRE 208 352 112 352
WIRE 592 368 592 176
WIRE 592 368 272 368
WIRE 1696 400 1696 224
WIRE 1792 400 1696 400
WIRE 2176 416 2176 224
WIRE 2176 416 1856 416
WIRE 3120 416 3120 240
WIRE 3216 416 3120 416
WIRE 3600 432 3600 240
WIRE 3600 432 3280 432
WIRE 304 848 272 848
WIRE 768 848 384 848
WIRE 272 928 272 848
WIRE 768 1040 768 848
WIRE 896 1040 768 1040
WIRE 928 1040 896 1040
WIRE 1040 1040 1008 1040
WIRE 1232 1040 1040 1040
WIRE 1248 1040 1232 1040
WIRE 896 1120 896 1040
WIRE 928 1120 896 1120
WIRE 1040 1120 1040 1040
WIRE 1040 1120 992 1120
WIRE 768 1216 768 1040
WIRE 864 1216 768 1216
WIRE 1248 1232 1248 1040
WIRE 1248 1232 928 1232
FLAG -944 16 0
FLAG -880 -96 +15V
FLAG -880 128 -15V
FLAG -768 -96 +3.6V
FLAG -656 -96 +1.8V
FLAG -384 144 0
FLAG 208 384 0
FLAG 240 336 +15V
FLAG 240 400 -15V
FLAG 240 48 -15V
FLAG 304 -880 +15V
FLAG 368 48 0
FLAG 176 -112 0
FLAG 688 128 +15V
FLAG 688 192 -15V
FLAG 752 48 Guard+
FLAG 176 -176 Guard+
FLAG 1200 192 0
FLAG 1792 432 0
FLAG 1824 384 +15V
FLAG 1824 448 -15V
FLAG 2032 -16 -15V
FLAG 1968 -272 +15V
FLAG 1904 -16 0
FLAG 2064 -128 0
FLAG 2272 112 +15V
FLAG 2272 176 -15V
FLAG 272 1008 0
FLAG 864 1248 0
FLAG 896 1200 +15V
FLAG 896 1264 -15V
FLAG 1232 1040 unswitched
FLAG 592 368 Mux1
FLAG 2176 416 Sw1
FLAG 2624 208 0
FLAG 3216 448 0
FLAG 3248 400 +15V
FLAG 3248 464 -15V
FLAG 3488 48 -15V
FLAG 3360 48 0
FLAG 3696 128 +15V
FLAG 3696 192 -15V
FLAG 3600 432 Mux2
FLAG 3552 -112 0
FLAG 3424 -880 +15V
SYMBOL voltage -880 -112 R0
WINDOW 123 0 0 Left 0
WINDOW 39 0 0 Left 0
SYMATTR InstName V1
SYMATTR Value 15
SYMBOL voltage -768 -112 R0
WINDOW 123 0 0 Left 0
WINDOW 39 0 0 Left 0
SYMATTR InstName V2
SYMATTR Value 3.6
SYMBOL voltage -880 32 R0
WINDOW 123 0 0 Left 0
WINDOW 39 0 0 Left 0
SYMATTR InstName V3
SYMATTR Value 15
SYMBOL voltage -656 -112 R0
WINDOW 123 0 0 Left 0
WINDOW 39 0 0 Left 0
SYMATTR InstName V4
SYMATTR Value 1.8
SYMBOL voltage -384 48 R0
WINDOW 3 24 152 Left 2
WINDOW 123 24 124 Left 2
WINDOW 39 0 0 Left 0
SYMATTR InstName V5
SYMATTR Value SINE(1.8 0.1 10k)
SYMATTR Value2 AC 1 0
SYMBOL Switches\\MAX333A 288 -736 R0
SYMATTR InstName U1
SYMBOL res 560 -224 R90
WINDOW 0 0 56 VBottom 2
WINDOW 3 32 56 VTop 2
SYMATTR InstName R1
SYMATTR Value 10
SYMBOL res -256 -32 R90
WINDOW 0 0 56 VBottom 2
WINDOW 3 32 56 VTop 2
SYMATTR InstName R2
SYMATTR Value 1Meg
SYMBOL res 368 160 R90
WINDOW 0 0 56 VBottom 2
WINDOW 3 32 56 VTop 2
SYMATTR InstName R3
SYMATTR Value 1Meg
SYMBOL OpAmps\\ADA4610 688 96 R0
SYMATTR InstName U2
SYMBOL voltage 1200 96 R0
WINDOW 3 24 152 Left 2
WINDOW 123 24 124 Left 2
WINDOW 39 0 0 Left 0
SYMATTR InstName V6
SYMATTR Value SINE(1.8 0.1 10k)
SYMATTR Value2 AC 1 0
SYMBOL res 1744 -208 M90
WINDOW 0 0 56 VBottom 2
WINDOW 3 32 56 VTop 2
SYMATTR InstName R4
SYMATTR Value 10
SYMBOL res 1328 16 R90
WINDOW 0 0 56 VBottom 2
WINDOW 3 32 56 VTop 2
SYMATTR InstName R5
SYMATTR Value 1Meg
SYMBOL res 1952 208 R90
WINDOW 0 0 56 VBottom 2
WINDOW 3 32 56 VTop 2
SYMATTR InstName R6
SYMATTR Value 1Meg
SYMBOL OpAmps\\ADA4610 2272 80 R0
SYMATTR InstName U6
SYMBOL Switches\\ADG412 1968 -144 M0
SYMATTR InstName U5
SYMBOL voltage 272 912 R0
WINDOW 3 24 152 Left 2
WINDOW 123 24 124 Left 2
WINDOW 39 0 0 Left 0
SYMATTR InstName V7
SYMATTR Value SINE(1.8 0.1 10k)
SYMATTR Value2 AC 1 0
SYMBOL res 400 832 R90
WINDOW 0 0 56 VBottom 2
WINDOW 3 32 56 VTop 2
SYMATTR InstName R8
SYMATTR Value 1Meg
SYMBOL res 1024 1024 R90
WINDOW 0 0 56 VBottom 2
WINDOW 3 32 56 VTop 2
SYMATTR InstName R9
SYMATTR Value 1Meg
SYMBOL OpAmps\\AD8651 896 1168 R0
SYMATTR InstName U8
SYMBOL OpAmps\\AD8651 1824 352 R0
SYMATTR InstName U3
SYMBOL OpAmps\\AD8651 240 304 R0
SYMATTR InstName U4
SYMBOL voltage 2624 112 R0
WINDOW 3 24 152 Left 2
WINDOW 123 24 124 Left 2
WINDOW 39 0 0 Left 0
SYMATTR InstName V8
SYMATTR Value SINE(1.8 0.1 10k)
SYMATTR Value2 AC 1 0
SYMBOL res 3168 -224 M90
WINDOW 0 0 56 VBottom 2
WINDOW 3 32 56 VTop 2
SYMATTR InstName R7
SYMATTR Value 10
SYMBOL res 2752 32 R90
WINDOW 0 0 56 VBottom 2
WINDOW 3 32 56 VTop 2
SYMATTR InstName R10
SYMATTR Value 1Meg
SYMBOL res 3376 224 R90
WINDOW 0 0 56 VBottom 2
WINDOW 3 32 56 VTop 2
SYMATTR InstName R11
SYMATTR Value 1Meg
SYMATTR SpiceLine tol=1 pwr=0.1
SYMBOL OpAmps\\ADA4610 3696 96 R0
SYMATTR InstName U7
SYMBOL OpAmps\\AD8651 3248 368 R0
SYMATTR InstName U10
SYMBOL Switches\\MAX333A 3440 -736 M0
SYMATTR InstName U9
SYMBOL cap 3344 304 R90
WINDOW 0 0 32 VBottom 2
WINDOW 3 32 32 VTop 2
SYMATTR InstName C1
SYMATTR Value 0.1p
TEXT -736 248 Left 2 !.ac dec 100 10k 1Meg
TEXT -736 272 Left 2 ;.tran 5m
