Version 4
SHEET 1 1024 700
WIRE 352 -416 128 -416
WIRE 720 -416 352 -416
WIRE 128 -368 128 -416
WIRE 720 -272 720 -416
WIRE 128 -224 128 -288
WIRE 288 -224 128 -224
WIRE 416 -224 288 -224
WIRE 496 -224 416 -224
WIRE 656 -224 576 -224
WIRE 128 -160 128 -224
WIRE 288 -80 288 -224
WIRE 416 -64 416 -224
WIRE 128 -32 128 -80
WIRE 224 -32 128 -32
WIRE 128 0 128 -32
WIRE 48 80 -144 80
WIRE -144 144 -144 80
WIRE -80 144 -144 144
WIRE 48 160 48 80
WIRE 48 160 -16 160
WIRE 128 160 128 80
WIRE 128 160 48 160
WIRE 288 160 288 16
WIRE 288 160 128 160
WIRE 416 160 416 0
WIRE 416 160 288 160
WIRE -80 176 -208 176
WIRE 128 192 128 160
WIRE -208 240 -208 176
WIRE 288 272 288 160
WIRE 416 288 416 160
WIRE 128 320 128 272
WIRE 224 320 128 320
WIRE -480 336 -480 320
WIRE -480 336 -544 336
WIRE -208 336 -208 320
WIRE -480 352 -480 336
WIRE 128 352 128 320
WIRE -544 368 -544 336
WIRE 720 416 720 -176
WIRE 128 464 128 432
WIRE 288 464 288 368
WIRE 288 464 128 464
WIRE 416 464 416 352
WIRE 416 464 288 464
WIRE 496 464 416 464
WIRE 656 464 576 464
WIRE 128 528 128 464
WIRE 128 656 128 608
WIRE 368 656 128 656
WIRE 720 656 720 512
WIRE 720 656 368 656
FLAG 352 -416 V+
FLAG 368 656 V-
FLAG -208 336 0
FLAG -544 368 0
FLAG -480 432 V-
FLAG -480 240 V+
SYMBOL OpAmps\\opamp -48 96 R0
SYMATTR InstName U1
SYMBOL voltage -208 224 R0
WINDOW 123 0 0 Left 0
WINDOW 39 0 0 Left 0
SYMATTR InstName V1
SYMATTR Value SINE(0 1 1Meg)
SYMBOL voltage -480 224 R0
WINDOW 123 0 0 Left 0
WINDOW 39 0 0 Left 0
SYMATTR InstName V2
SYMATTR Value 18
SYMBOL voltage -480 336 R0
WINDOW 123 0 0 Left 0
WINDOW 39 0 0 Left 0
SYMATTR InstName V3
SYMATTR Value 18
SYMBOL diode -832 320 R0
SYMATTR InstName D3
SYMATTR Value 1N4148
SYMBOL res 112 336 R0
SYMATTR InstName R3
SYMATTR Value 100
SYMBOL res 112 176 R0
SYMATTR InstName R4
SYMATTR Value 2.4k
SYMBOL res 112 -16 R0
SYMATTR InstName R5
SYMATTR Value 100
SYMBOL res 112 -176 R0
SYMATTR InstName R6
SYMATTR Value 2.4k
SYMBOL current 128 -368 R0
WINDOW 123 0 0 Left 0
WINDOW 39 0 0 Left 0
SYMATTR InstName I1
SYMATTR Value 10m
SYMBOL current 128 528 R0
WINDOW 123 0 0 Left 0
WINDOW 39 0 0 Left 0
SYMATTR InstName I2
SYMATTR Value 10m
SYMBOL cap 400 288 R0
SYMATTR InstName C1
SYMATTR Value 1µ
SYMBOL cap 400 -64 R0
SYMATTR InstName C2
SYMATTR Value 1µ
SYMBOL pnp 656 -272 R0
SYMATTR InstName Q3
SYMATTR Value 2N2907
SYMBOL npn 656 416 R0
SYMATTR InstName Q4
SYMATTR Value 2N2219A
SYMBOL npn 224 272 R0
SYMATTR InstName Q5
SYMATTR Value 2N2219A
SYMBOL npn 224 -80 R0
SYMATTR InstName Q6
SYMATTR Value 2N2219A
SYMBOL res 592 -240 R90
WINDOW 0 0 56 VBottom 2
WINDOW 3 32 56 VTop 2
SYMATTR InstName R1
SYMATTR Value 1k
SYMBOL res 592 448 R90
WINDOW 0 0 56 VBottom 2
WINDOW 3 32 56 VTop 2
SYMATTR InstName R2
SYMATTR Value 1k
TEXT -1024 544 Left 2 !.tran 0 5u 0 1u
TEXT -1024 600 Left 2 !.model D D(Ron=1m Roff=10Meg Vfwd=17.3 Vrev=100)
TEXT -1024 624 Left 2 !.lib opamp.sub
