Version 4
SHEET 1 1576 700
WIRE 976 -528 -208 -528
WIRE 352 -208 128 -208
WIRE 624 -208 352 -208
WIRE 128 -160 128 -208
WIRE 624 -64 624 -208
WIRE 16 -32 -32 -32
WIRE 128 -32 128 -80
WIRE 320 -32 128 -32
WIRE 128 0 128 -32
WIRE 320 0 320 -32
WIRE 320 112 320 80
WIRE 624 160 624 32
WIRE 976 160 976 -528
WIRE 976 160 624 160
WIRE 128 192 128 80
WIRE 272 192 128 192
WIRE 128 224 128 192
WIRE -80 256 -224 256
WIRE -224 320 -224 256
WIRE -176 320 -224 320
WIRE 624 320 624 160
WIRE -480 336 -480 320
WIRE -480 336 -544 336
WIRE -80 336 -80 256
WIRE -80 336 -112 336
WIRE -32 336 -32 -32
WIRE -32 336 -80 336
WIRE 16 336 -32 336
WIRE 128 336 128 304
WIRE 320 336 320 208
WIRE 320 336 128 336
WIRE -480 352 -480 336
WIRE -176 352 -224 352
WIRE -544 368 -544 336
WIRE 128 400 128 336
WIRE -224 416 -224 352
WIRE -224 544 -224 496
WIRE 128 544 128 480
WIRE 368 544 128 544
WIRE 624 544 624 416
WIRE 624 544 368 544
FLAG 352 -208 V+
FLAG 368 544 V-
FLAG -224 544 0
FLAG -544 368 0
FLAG -480 432 V-
FLAG -480 240 V+
FLAG -592 -32 0
FLAG -592 -112 0
FLAG 128 400 0
SYMBOL OpAmps\\opamp -144 272 R0
SYMATTR InstName U1
SYMBOL voltage -224 400 R0
WINDOW 123 0 0 Left 0
WINDOW 39 0 0 Left 0
SYMATTR InstName V1
SYMATTR Value SINE(0 1 1Meg)
SYMBOL voltage -480 224 R0
WINDOW 123 0 0 Left 0
WINDOW 39 0 0 Left 0
SYMATTR InstName V2
SYMATTR Value 18
SYMBOL voltage -480 336 R0
WINDOW 123 0 0 Left 0
WINDOW 39 0 0 Left 0
SYMATTR InstName V3
SYMATTR Value 18
SYMBOL diode -832 320 R0
SYMATTR InstName D3
SYMATTR Value 1N4148
SYMBOL res 112 208 R0
SYMATTR InstName R1
SYMATTR Value 100
SYMBOL res 112 -16 R0
SYMATTR InstName R3
SYMATTR Value 10k
SYMBOL res 304 -16 R0
SYMATTR InstName R4
SYMATTR Value 8
SYMBOL current -592 -112 R0
WINDOW 123 0 0 Left 0
WINDOW 39 0 0 Left 0
SYMATTR InstName I3
SYMATTR Value PULSE(0 100m 0 5u 1 1 1 1)
SYMBOL cap 80 -48 R90
WINDOW 0 0 32 VBottom 2
WINDOW 3 32 32 VTop 2
SYMATTR InstName C1
SYMATTR Value 1”
SYMBOL cap 80 320 R90
WINDOW 0 0 32 VBottom 2
WINDOW 3 32 32 VTop 2
SYMATTR InstName C2
SYMATTR Value 1”
SYMBOL nmos 576 -64 R0
SYMATTR InstName M1
SYMATTR Value IRF530
SYMBOL pmos 576 320 R0
SYMATTR InstName M2
SYMATTR Value IRF7343P
SYMBOL pmos 272 112 R0
SYMATTR InstName M3
SYMATTR Value IRF7343P
SYMBOL current 128 -160 R0
WINDOW 123 0 0 Left 0
WINDOW 39 0 0 Left 0
SYMATTR InstName I1
SYMATTR Value PULSE(0 100m 0 5u 1 1 1 1)
TEXT -1024 544 Left 2 !.tran 0 10u 0 1u
TEXT -1024 600 Left 2 !.model D D(Ron=1m Roff=10Meg Vfwd=17.3 Vrev=100)
TEXT -1024 624 Left 2 !.lib opamp.sub
