Version 4
SHEET 1 1576 940
WIRE 976 -528 -208 -528
WIRE 352 -208 128 -208
WIRE 624 -208 352 -208
WIRE 128 -160 128 -208
WIRE 624 -32 624 -208
WIRE 16 48 -32 48
WIRE 128 48 128 -80
WIRE 320 48 128 48
WIRE 128 80 128 48
WIRE 320 112 320 48
WIRE 624 160 624 64
WIRE 976 160 976 -528
WIRE 976 160 624 160
WIRE 128 192 128 160
WIRE 272 192 128 192
WIRE 128 224 128 192
WIRE -80 256 -224 256
WIRE -224 320 -224 256
WIRE -176 320 -224 320
WIRE -480 336 -480 320
WIRE -480 336 -544 336
WIRE -80 336 -80 256
WIRE -80 336 -112 336
WIRE -32 336 -32 48
WIRE -32 336 -80 336
WIRE 16 336 -32 336
WIRE 128 336 128 304
WIRE 320 336 320 208
WIRE 320 336 128 336
WIRE -480 352 -480 336
WIRE -176 352 -224 352
WIRE -544 368 -544 336
WIRE 128 368 128 336
WIRE 320 400 320 336
WIRE -224 416 -224 352
WIRE 128 480 128 448
WIRE 272 480 128 480
WIRE 128 512 128 480
WIRE -224 544 -224 496
WIRE 624 544 624 160
WIRE 128 624 128 592
WIRE 320 624 320 496
WIRE 320 624 128 624
WIRE 128 688 128 624
WIRE 368 896 128 896
WIRE 624 896 624 640
WIRE 624 896 368 896
FLAG 352 -208 V+
FLAG 368 896 V-
FLAG -224 544 0
FLAG -544 368 0
FLAG -480 432 V-
FLAG -480 240 V+
FLAG -592 -32 0
FLAG -592 -112 0
FLAG 128 688 0
SYMBOL OpAmps\\opamp -144 272 R0
SYMATTR InstName U1
SYMBOL voltage -224 400 R0
WINDOW 123 0 0 Left 0
WINDOW 39 0 0 Left 0
SYMATTR InstName V1
SYMATTR Value SINE(0 1 1Meg)
SYMBOL voltage -480 224 R0
WINDOW 123 0 0 Left 0
WINDOW 39 0 0 Left 0
SYMATTR InstName V2
SYMATTR Value 18
SYMBOL voltage -480 336 R0
WINDOW 123 0 0 Left 0
WINDOW 39 0 0 Left 0
SYMATTR InstName V3
SYMATTR Value 18
SYMBOL diode -832 320 R0
SYMATTR InstName D3
SYMATTR Value 1N4148
SYMBOL res 112 208 R0
SYMATTR InstName R1
SYMATTR Value 1k
SYMBOL res 112 64 R0
SYMATTR InstName R3
SYMATTR Value 4k
SYMBOL current -592 -112 R0
WINDOW 123 0 0 Left 0
WINDOW 39 0 0 Left 0
SYMATTR InstName I3
SYMATTR Value PULSE(0 100m 0 5u 1 1 1 1)
SYMBOL cap 80 32 R90
WINDOW 0 0 32 VBottom 2
WINDOW 3 32 32 VTop 2
SYMATTR InstName C1
SYMATTR Value 1”
SYMBOL cap 80 320 R90
WINDOW 0 0 32 VBottom 2
WINDOW 3 32 32 VTop 2
SYMATTR InstName C2
SYMATTR Value 1”
SYMBOL nmos 576 -32 R0
SYMATTR InstName M1
SYMATTR Value IRF530
SYMBOL pmos 576 544 R0
SYMATTR InstName M2
SYMATTR Value IRF7343P
SYMBOL pmos 272 112 R0
SYMATTR InstName M3
SYMATTR Value IRF7343P
SYMBOL current 128 -160 R0
WINDOW 123 0 0 Left 0
WINDOW 39 0 0 Left 0
SYMATTR InstName I1
SYMATTR Value PULSE(0 100m 0 5u 1 1 1 1)
SYMBOL res 112 496 R0
SYMATTR InstName R2
SYMATTR Value 1k
SYMBOL res 112 352 R0
SYMATTR InstName R5
SYMATTR Value 3k
SYMBOL pmos 272 400 R0
SYMATTR InstName M4
SYMATTR Value IRF7343P
TEXT -1024 544 Left 2 !.tran 0 10u 0 1u
TEXT -1024 600 Left 2 !.model D D(Ron=1m Roff=10Meg Vfwd=17.3 Vrev=100)
TEXT -1024 624 Left 2 !.lib opamp.sub
