Version 4.1
SHEET 1 880 680
WIRE -224 -96 -272 -96
WIRE 112 -96 48 -96
WIRE 176 -96 112 -96
WIRE 384 -96 368 -96
WIRE 400 -96 384 -96
WIRE 496 -96 480 -96
WIRE -272 -16 -272 -96
WIRE -272 -16 -384 -16
WIRE 384 -16 384 -96
WIRE 400 -16 384 -16
WIRE 496 -16 496 -96
WIRE 496 -16 464 -16
WIRE -880 16 -880 -16
WIRE -880 16 -944 16
WIRE -768 16 -768 -16
WIRE -768 16 -880 16
WIRE -656 16 -656 -16
WIRE -656 16 -768 16
WIRE -880 48 -880 16
WIRE -384 64 -384 -16
WIRE -272 64 -272 -16
WIRE -16 64 -272 64
WIRE 112 64 112 -96
WIRE 112 64 64 64
WIRE 368 64 112 64
WIRE 496 64 496 -16
WIRE 496 64 448 64
WIRE 112 240 112 64
WIRE 288 240 112 240
WIRE 496 240 496 64
WIRE 496 240 352 240
WIRE 112 352 112 240
WIRE 208 352 112 352
WIRE 496 368 496 240
WIRE 496 368 272 368
FLAG -944 16 0
FLAG -880 -96 +15V
FLAG -880 128 -15V
FLAG -768 -96 +3.6V
FLAG -656 -96 +1.8V
FLAG 272 -16 +15V
FLAG 336 -272 -15V
FLAG 208 -272 0
FLAG 240 400 0
FLAG 240 336 +3.6V
FLAG 208 384 +1.8V
FLAG -384 144 0
FLAG -112 -272 0
FLAG 16 -272 -15V
FLAG -48 -16 +15V
FLAG 48 -160 +3.6V
FLAG 400 -208 +3.6V
FLAG 368 -160 0
FLAG 80 -160 0
SYMBOL res 80 48 R90
WINDOW 0 0 56 VBottom 2
WINDOW 3 32 56 VTop 2
SYMATTR InstName R1
SYMATTR Value 9.09k
SYMBOL res -128 -112 R90
WINDOW 0 0 56 VBottom 2
WINDOW 3 32 56 VTop 2
SYMATTR InstName R2
SYMATTR Value 11k
SYMBOL res 464 48 R90
WINDOW 0 0 56 VBottom 2
WINDOW 3 32 56 VTop 2
SYMATTR InstName R3
SYMATTR Value 49.9k
SYMBOL res 496 -112 R90
WINDOW 0 0 56 VBottom 2
WINDOW 3 32 56 VTop 2
SYMATTR InstName R4
SYMATTR Value 5.5k
SYMBOL voltage -880 -112 R0
WINDOW 123 0 0 Left 0
WINDOW 39 0 0 Left 0
SYMATTR InstName V1
SYMATTR Value 15
SYMBOL voltage -768 -112 R0
WINDOW 123 0 0 Left 0
WINDOW 39 0 0 Left 0
SYMATTR InstName V2
SYMATTR Value 3.6
SYMBOL voltage -880 32 R0
WINDOW 123 0 0 Left 0
WINDOW 39 0 0 Left 0
SYMATTR InstName V3
SYMATTR Value 15
SYMBOL voltage -656 -112 R0
WINDOW 123 0 0 Left 0
WINDOW 39 0 0 Left 0
SYMATTR InstName V4
SYMATTR Value 1.8
SYMBOL voltage -384 48 R0
WINDOW 3 24 152 Left 2
WINDOW 123 24 124 Left 2
WINDOW 39 0 0 Left 0
SYMATTR InstName V5
SYMATTR Value SINE(1.8 0.1 10k)
SYMATTR Value2 AC 1 0
SYMBOL OpAmps\\ADA4610 240 304 R0
SYMATTR InstName U4
SYMBOL Switches\\ADG1412 272 -144 R180
SYMATTR InstName U1
SYMBOL Switches\\ADG1412 -48 -144 R180
SYMATTR InstName U2
SYMBOL cap 352 224 R90
WINDOW 0 0 32 VBottom 2
WINDOW 3 32 32 VTop 2
SYMATTR InstName C1
SYMATTR Value 2.2p
SYMBOL cap 464 -32 R90
WINDOW 0 0 32 VBottom 2
WINDOW 3 32 32 VTop 2
SYMATTR InstName C2
SYMATTR Value 27p
TEXT -280 224 Left 2 !.ac dec 100 0.1 100k
TEXT -280 256 Left 2 ;.tran 5m
