Version 4
SHEET 1 1320 700
WIRE 528 -368 -144 -368
WIRE 192 -256 128 -256
WIRE 368 -256 192 -256
WIRE 368 -192 368 -256
WIRE 128 -144 128 -256
WIRE 368 -48 368 -112
WIRE 128 0 128 -64
WIRE 304 0 128 0
WIRE 704 0 624 0
WIRE 624 32 624 0
WIRE 128 48 128 0
WIRE 704 48 704 0
WIRE -144 144 -144 -368
WIRE -80 144 -144 144
WIRE 128 160 128 112
WIRE 128 160 -16 160
WIRE 368 160 368 48
WIRE 528 160 528 -368
WIRE 528 160 368 160
WIRE 624 160 624 112
WIRE 624 160 528 160
WIRE -80 176 -208 176
WIRE 128 208 128 160
WIRE 368 272 368 160
WIRE -768 320 -768 304
WIRE -768 320 -832 320
WIRE -208 320 -208 176
WIRE 128 320 128 272
WIRE 304 320 128 320
WIRE -768 336 -768 320
WIRE -832 352 -832 320
WIRE 128 384 128 320
WIRE -208 416 -208 400
WIRE 368 432 368 368
WIRE -432 464 -432 448
WIRE 128 576 128 464
WIRE 192 576 128 576
WIRE 368 576 368 512
WIRE 368 576 192 576
WIRE 0 0 0 0
FLAG 192 -256 V+
FLAG 192 576 V-
FLAG -208 416 0
FLAG -832 352 0
FLAG -768 416 V-
FLAG -768 224 V+
FLAG -432 464 0
FLAG 704 48 0
SYMBOL OpAmps\\opamp -48 96 R0
SYMATTR InstName U1
SYMBOL voltage -208 304 R0
WINDOW 123 0 0 Left 0
WINDOW 39 0 0 Left 0
SYMATTR InstName V1
SYMATTR Value SINE(0 1 1Meg)
SYMBOL voltage -768 208 R0
WINDOW 123 0 0 Left 0
WINDOW 39 0 0 Left 0
SYMATTR InstName V2
SYMATTR Value 18
SYMBOL voltage -768 320 R0
WINDOW 123 0 0 Left 0
WINDOW 39 0 0 Left 0
SYMATTR InstName V3
SYMATTR Value 18
SYMBOL diode 112 48 R0
SYMATTR InstName D1
SYMATTR Value 1N4148
SYMBOL diode 112 208 R0
SYMATTR InstName D2
SYMATTR Value 1N4148
SYMBOL res 144 -48 R180
WINDOW 0 36 76 Left 2
WINDOW 3 36 40 Left 2
SYMATTR InstName R3
SYMATTR Value 1k
SYMBOL res 144 480 R180
WINDOW 0 36 76 Left 2
WINDOW 3 36 40 Left 2
SYMATTR InstName R4
SYMATTR Value 1k
SYMBOL npn 304 -48 R0
SYMATTR InstName Q2
SYMATTR Value 2N2219A
SYMBOL voltage -432 352 R0
WINDOW 123 0 0 Left 0
WINDOW 39 0 0 Left 0
SYMATTR InstName V4
SYMATTR Value PULSE(-18 18 1f 5u 1 1 1)
SYMBOL pnp 304 368 M180
SYMATTR InstName Q1
SYMATTR Value 2N2907
SYMBOL current 624 32 R0
WINDOW 123 0 0 Left 0
WINDOW 39 0 0 Left 0
SYMATTR InstName I1
SYMATTR Value 200m
SYMBOL res 384 -96 R180
WINDOW 0 36 76 Left 2
WINDOW 3 36 40 Left 2
SYMATTR InstName R1
SYMATTR Value 100m
SYMBOL res 384 528 R180
WINDOW 0 36 76 Left 2
WINDOW 3 36 40 Left 2
SYMATTR InstName R2
SYMATTR Value 100m
TEXT -1024 544 Left 2 !.tran 0 5u 0 1u
TEXT -1024 600 Left 2 !.model D D(Ron=1m Roff=10Meg Vfwd=0.7 Vrev=100)
TEXT -1024 624 Left 2 !.lib opamp.sub
