Version 4
SHEET 1 880 680
WIRE 416 -176 -208 -176
WIRE 208 -128 128 -128
WIRE 288 -128 208 -128
WIRE 128 -80 128 -128
WIRE 288 -16 288 -128
WIRE 128 32 128 0
WIRE 224 32 128 32
WIRE 128 64 128 32
WIRE -208 144 -208 -176
WIRE -80 144 -208 144
WIRE 128 160 128 128
WIRE 128 160 -16 160
WIRE 288 160 288 80
WIRE 416 160 416 -176
WIRE 416 160 288 160
WIRE -80 176 -208 176
WIRE 128 192 128 160
WIRE -208 240 -208 176
WIRE 288 240 288 160
WIRE 128 288 128 256
WIRE 224 288 128 288
WIRE 128 320 128 288
WIRE -480 336 -480 320
WIRE -480 336 -544 336
WIRE -208 336 -208 320
WIRE -480 352 -480 336
WIRE -544 368 -544 336
WIRE 128 464 128 400
WIRE 208 464 128 464
WIRE 288 464 288 336
WIRE 288 464 208 464
FLAG 208 -128 V+
FLAG 208 464 V-
FLAG -208 336 0
FLAG -544 368 0
FLAG -480 432 V-
FLAG -480 240 V+
SYMBOL diode 112 64 R0
SYMATTR InstName D1
SYMATTR Value 1N4148
SYMBOL res 112 -96 R0
SYMATTR InstName R1
SYMATTR Value 1k
SYMBOL res 112 304 R0
SYMATTR InstName R2
SYMATTR Value 1k
SYMBOL OpAmps\\opamp -48 96 R0
SYMATTR InstName U1
SYMBOL voltage -208 224 R0
WINDOW 123 0 0 Left 0
WINDOW 39 0 0 Left 0
SYMATTR InstName V1
SYMATTR Value SINE(0 1 1Meg)
SYMBOL npn 224 -16 R0
SYMATTR InstName Q1
SYMATTR Value 2N2222
SYMBOL pnp 224 336 M180
SYMATTR InstName Q2
SYMATTR Value 2N2907
SYMBOL voltage -480 224 R0
WINDOW 123 0 0 Left 0
WINDOW 39 0 0 Left 0
SYMATTR InstName V2
SYMATTR Value 18
SYMBOL voltage -480 336 R0
WINDOW 123 0 0 Left 0
WINDOW 39 0 0 Left 0
SYMATTR InstName V3
SYMATTR Value 18
SYMBOL diode 112 192 R0
SYMATTR InstName D2
SYMATTR Value 1N4148
TEXT -242 504 Left 2 !.tran 0 5u 0 1u
TEXT -240 560 Left 2 !.model D D(Ron=1m Roff=10Meg Vfwd=0.7 Vrev=100)
TEXT -240 584 Left 2 !.lib opamp.sub
