Version 4
SHEET 1 1320 700
WIRE 560 -304 -208 -304
WIRE 192 -256 128 -256
WIRE 368 -256 192 -256
WIRE 128 -144 128 -256
WIRE 368 -64 368 -256
WIRE 128 -16 128 -64
WIRE 304 -16 128 -16
WIRE -208 0 -208 -304
WIRE 128 48 128 -16
WIRE 368 64 368 32
WIRE -368 144 -640 144
WIRE -336 144 -368 144
WIRE -208 144 -208 80
WIRE -208 144 -256 144
WIRE -160 144 -208 144
WIRE 128 160 128 112
WIRE 128 160 -96 160
WIRE 368 160 368 144
WIRE 560 160 560 -304
WIRE 560 160 368 160
WIRE -160 176 -192 176
WIRE 368 176 368 160
WIRE -192 208 -192 176
WIRE 128 208 128 160
WIRE -368 224 -368 144
WIRE 368 288 368 256
WIRE -768 320 -768 304
WIRE -768 320 -832 320
WIRE -768 336 -768 320
WIRE -368 336 -368 304
WIRE 128 336 128 272
WIRE 304 336 128 336
WIRE -832 352 -832 320
WIRE 128 384 128 336
WIRE -640 528 -640 512
WIRE 128 576 128 464
WIRE 192 576 128 576
WIRE 368 576 368 384
WIRE 368 576 192 576
FLAG 192 -256 V+
FLAG 192 576 V-
FLAG -368 336 0
FLAG -832 352 0
FLAG -768 416 V-
FLAG -768 224 V+
FLAG -640 528 0
FLAG -192 208 0
SYMBOL OpAmps\\opamp -128 96 R0
SYMATTR InstName U1
SYMBOL voltage -368 208 R0
WINDOW 123 0 0 Left 0
WINDOW 39 0 0 Left 0
SYMATTR InstName V1
SYMATTR Value SINE(0 1 1Meg)
SYMBOL voltage -768 208 R0
WINDOW 123 0 0 Left 0
WINDOW 39 0 0 Left 0
SYMATTR InstName V2
SYMATTR Value 18
SYMBOL voltage -768 320 R0
WINDOW 123 0 0 Left 0
WINDOW 39 0 0 Left 0
SYMATTR InstName V3
SYMATTR Value 18
SYMBOL res 144 -48 R180
WINDOW 0 36 76 Left 2
WINDOW 3 36 40 Left 2
SYMATTR InstName R3
SYMATTR Value 2k
SYMBOL res 144 480 R180
WINDOW 0 36 76 Left 2
WINDOW 3 36 40 Left 2
SYMATTR InstName R4
SYMATTR Value 2k
SYMBOL npn 304 -64 R0
SYMATTR InstName Q2
SYMATTR Value 2N4401
SYMBOL voltage -640 416 R0
WINDOW 123 0 0 Left 0
WINDOW 39 0 0 Left 0
SYMATTR InstName V4
SYMATTR Value PULSE(-18 18 1f 5u 1 1 1)
SYMBOL pnp 304 384 M180
SYMATTR InstName Q1
SYMATTR Value 2N4403
SYMBOL diode 112 48 R0
SYMATTR InstName D1
SYMBOL diode 112 208 R0
SYMATTR InstName D2
SYMBOL res 352 48 R0
SYMATTR InstName R1
SYMATTR Value 100m
SYMBOL res 352 160 R0
SYMATTR InstName R2
SYMATTR Value 100m
SYMBOL res -192 96 R180
WINDOW 0 36 76 Left 2
WINDOW 3 36 40 Left 2
SYMATTR InstName R5
SYMATTR Value 100k
SYMBOL res -352 160 R270
WINDOW 0 32 56 VTop 2
WINDOW 3 0 56 VBottom 2
SYMATTR InstName R6
SYMATTR Value 100k
TEXT -1024 544 Left 2 !.tran 0 5u 0 1u
TEXT -1024 600 Left 2 !.model D D(Ron=1m Roff=10Meg Vfwd=0.75 Vrev=100)
TEXT -1024 624 Left 2 !.lib opamp.sub
