Version 4
SHEET 1 880 684
WIRE 208 -416 128 -416
WIRE 624 -416 208 -416
WIRE 128 -368 128 -416
WIRE 624 -304 624 -416
WIRE 128 -224 128 -288
WIRE 272 -224 128 -224
WIRE 416 -224 272 -224
WIRE 576 -224 416 -224
WIRE 128 -160 128 -224
WIRE 272 -112 272 -224
WIRE 416 -96 416 -224
WIRE 128 -32 128 -80
WIRE 224 -32 128 -32
WIRE 128 0 128 -32
WIRE 48 80 -144 80
WIRE -144 144 -144 80
WIRE -80 144 -144 144
WIRE 48 160 48 80
WIRE 48 160 -16 160
WIRE 128 160 128 80
WIRE 128 160 48 160
WIRE 272 160 272 -16
WIRE 272 160 128 160
WIRE 416 160 416 -32
WIRE 416 160 272 160
WIRE -80 176 -208 176
WIRE 128 192 128 160
WIRE -208 240 -208 176
WIRE 272 240 272 160
WIRE 416 256 416 160
WIRE 128 320 128 272
WIRE 224 320 128 320
WIRE -480 336 -480 320
WIRE -480 336 -544 336
WIRE -208 336 -208 320
WIRE -480 352 -480 336
WIRE 128 352 128 320
WIRE -544 368 -544 336
WIRE 624 384 624 -208
WIRE 128 464 128 432
WIRE 272 464 272 336
WIRE 272 464 128 464
WIRE 416 464 416 320
WIRE 416 464 272 464
WIRE 576 464 416 464
WIRE 128 496 128 464
WIRE 128 640 128 576
WIRE 208 640 128 640
WIRE 624 640 624 480
WIRE 624 640 208 640
FLAG 208 -416 V+
FLAG 208 640 V-
FLAG -208 336 0
FLAG -544 368 0
FLAG -480 432 V-
FLAG -480 240 V+
SYMBOL OpAmps\\opamp -48 96 R0
SYMATTR InstName U1
SYMBOL voltage -208 224 R0
WINDOW 123 0 0 Left 0
WINDOW 39 0 0 Left 0
SYMATTR InstName V1
SYMATTR Value SINE(0 1 1Meg)
SYMBOL voltage -480 224 R0
WINDOW 123 0 0 Left 0
WINDOW 39 0 0 Left 0
SYMATTR InstName V2
SYMATTR Value 18
SYMBOL voltage -480 336 R0
WINDOW 123 0 0 Left 0
WINDOW 39 0 0 Left 0
SYMATTR InstName V3
SYMATTR Value 18
SYMBOL diode -832 320 R0
SYMATTR InstName D3
SYMATTR Value 1N4148
SYMBOL res 112 336 R0
SYMATTR InstName R3
SYMATTR Value 1k
SYMBOL res 112 176 R0
SYMATTR InstName R4
SYMATTR Value 15k
SYMBOL res 112 -16 R0
SYMATTR InstName R5
SYMATTR Value 1k
SYMBOL res 112 -176 R0
SYMATTR InstName R6
SYMATTR Value 15k
SYMBOL current 128 -368 R0
WINDOW 123 0 0 Left 0
WINDOW 39 0 0 Left 0
SYMATTR InstName I1
SYMATTR Value 1m
SYMBOL current 128 496 R0
WINDOW 123 0 0 Left 0
WINDOW 39 0 0 Left 0
SYMATTR InstName I2
SYMATTR Value 1m
SYMBOL pmos 576 384 R0
SYMATTR InstName M4
SYMATTR Value IRFP9240
SYMBOL nmos 224 -112 R0
SYMATTR InstName M2
SYMATTR Value IRF510
SYMBOL nmos 224 240 R0
SYMATTR InstName M3
SYMATTR Value IRF510
SYMBOL cap 400 256 R0
SYMATTR InstName C1
SYMATTR Value 1µ
SYMBOL cap 400 -96 R0
SYMATTR InstName C2
SYMATTR Value 1µ
SYMBOL nmos 576 -304 R0
SYMATTR InstName M1
SYMATTR Value IRF510
TEXT -1024 544 Left 2 !.tran 0 5u 0 1u
TEXT -1024 600 Left 2 !.model D D(Ron=1m Roff=10Meg Vfwd=17.3 Vrev=100)
TEXT -1024 624 Left 2 !.lib opamp.sub
