Version 4.1
SHEET 1 2276 6240
WIRE 896 48 896 32
WIRE 992 48 992 32
WIRE 992 48 896 48
WIRE 1168 48 1168 32
WIRE 1376 48 1168 48
WIRE 896 64 896 48
WIRE 1168 64 1168 48
WIRE 1760 80 1568 80
WIRE 992 112 992 48
WIRE 1376 112 1312 112
WIRE 1312 352 1312 112
WIRE 1760 352 1760 80
WIRE 1760 352 1312 352
WIRE 1680 1088 1600 1088
WIRE 1840 1088 1744 1088
WIRE 1840 1152 1840 1088
WIRE 2032 1152 1840 1152
WIRE 1600 1216 1600 1088
WIRE 1664 1216 1600 1216
WIRE 1840 1216 1840 1152
WIRE 1840 1216 1744 1216
WIRE 1680 1344 1600 1344
WIRE 1840 1344 1744 1344
WIRE 1600 1408 1600 1344
WIRE 1600 1408 1088 1408
WIRE 1840 1408 1840 1344
WIRE 2032 1408 2032 1152
WIRE 2032 1408 1840 1408
WIRE 1600 1472 1600 1408
WIRE 1664 1472 1600 1472
WIRE 1840 1472 1840 1408
WIRE 1840 1472 1744 1472
WIRE 1680 1600 1600 1600
WIRE 1840 1600 1744 1600
WIRE 1840 1664 1840 1600
WIRE 2032 1664 2032 1408
WIRE 2032 1664 1840 1664
WIRE -544 1696 -672 1696
WIRE 1088 1696 1088 1408
WIRE 1088 1696 -544 1696
WIRE 1600 1728 1600 1600
WIRE 1664 1728 1600 1728
WIRE 1840 1728 1840 1664
WIRE 1840 1728 1744 1728
WIRE 2032 1792 2032 1664
WIRE 2080 1792 2032 1792
WIRE 1696 1856 1600 1856
WIRE 1840 1856 1760 1856
WIRE -544 1888 -544 1696
WIRE -544 1888 -672 1888
WIRE 1600 1984 1600 1856
WIRE 1664 1984 1600 1984
WIRE 1840 1984 1840 1856
WIRE 1840 1984 1744 1984
WIRE 2032 1984 2032 1792
WIRE 2032 1984 1840 1984
WIRE 1680 2112 1600 2112
WIRE 1840 2112 1744 2112
WIRE 1088 2176 1088 1696
WIRE 1600 2176 1600 2112
WIRE 1600 2176 1088 2176
WIRE 1600 2240 1600 2176
WIRE 1664 2240 1600 2240
WIRE 1840 2240 1840 2112
WIRE 1840 2240 1744 2240
WIRE 2032 2240 2032 1984
WIRE 2032 2240 1840 2240
WIRE 1440 2384 1328 2384
WIRE 1552 2384 1440 2384
WIRE 1328 2416 1328 2384
WIRE 1552 2464 1392 2464
WIRE 1552 2480 1552 2464
WIRE 2032 2544 2032 2240
WIRE 2032 2544 1968 2544
WIRE 2224 2544 2032 2544
WIRE 1088 2576 1088 2176
WIRE 1328 2576 1328 2512
WIRE 1328 2576 1088 2576
WIRE 1552 2576 1552 2544
WIRE 1776 2576 1552 2576
WIRE 1552 2608 1552 2576
WIRE 2032 2608 1968 2608
WIRE 1328 2640 1328 2576
WIRE 1552 2688 1552 2672
WIRE 1552 2688 1392 2688
WIRE 1328 2768 1328 2736
WIRE 1440 2768 1328 2768
WIRE 1552 2768 1440 2768
WIRE -544 2832 -544 1888
WIRE -336 2832 -544 2832
WIRE -112 2832 -256 2832
WIRE -112 2976 -112 2832
WIRE -112 2976 -256 2976
WIRE -112 3008 -112 2976
WIRE 64 3008 -112 3008
WIRE 432 3008 128 3008
WIRE 496 3008 432 3008
WIRE 656 3008 576 3008
WIRE 1024 3008 656 3008
WIRE 1520 3008 1104 3008
WIRE -112 3136 -112 3008
WIRE -112 3136 -256 3136
WIRE 1248 3152 1136 3152
WIRE 1360 3152 1248 3152
WIRE 1360 3184 1360 3152
WIRE 1296 3232 1136 3232
WIRE 1136 3248 1136 3232
WIRE -112 3280 -112 3136
WIRE -112 3280 -256 3280
WIRE 0 3280 -112 3280
WIRE 432 3312 432 3008
WIRE 432 3312 192 3312
WIRE 656 3312 656 3008
WIRE 720 3312 656 3312
WIRE 0 3344 -64 3344
WIRE 1136 3344 1136 3312
WIRE 1136 3344 912 3344
WIRE 1360 3344 1360 3280
WIRE 1520 3344 1520 3008
WIRE 1520 3344 1360 3344
WIRE 2224 3344 2224 2544
WIRE 2224 3344 1520 3344
WIRE 720 3376 656 3376
WIRE 1136 3376 1136 3344
WIRE 1360 3408 1360 3344
WIRE 1136 3456 1136 3440
WIRE 1296 3456 1136 3456
WIRE 1248 3536 1136 3536
WIRE 1360 3536 1360 3504
WIRE 1360 3536 1248 3536
FLAG 992 112 0
FLAG 896 -48 +18V
FLAG 896 144 -18V
FLAG 992 -48 3.3V
FLAG 1472 -16 +18V
FLAG 1472 176 -18V
FLAG 1168 144 0
FLAG 1168 -48 3.3V
FLAG 1760 80 1.65V
FLAG 1872 2672 +18V
FLAG 1872 2480 -18V
FLAG 1440 2384 +18V
FLAG 1440 2768 -18V
FLAG 2032 1408 LCURR
IOPIN 2032 1408 BiDir
FLAG 96 3408 +18V
FLAG 96 3216 -18V
FLAG 2032 2608 0
FLAG 816 3440 +18V
FLAG 816 3248 -18V
FLAG 1248 3152 +18V
FLAG 1248 3536 -18V
FLAG 656 3376 0
FLAG -64 3344 0
FLAG 2160 1792 0
SYMBOL voltage 896 -64 R0
WINDOW 123 0 0 Left 0
WINDOW 39 0 0 Left 0
SYMATTR InstName V1
SYMATTR Value 18
SYMBOL voltage 896 48 R0
WINDOW 123 0 0 Left 0
WINDOW 39 0 0 Left 0
SYMATTR InstName V2
SYMATTR Value 18
SYMBOL voltage 992 -64 R0
WINDOW 123 0 0 Left 0
WINDOW 39 0 0 Left 0
SYMATTR InstName V3
SYMATTR Value 3.3
SYMBOL lib\\sym\\OPAx197 1472 80 R0
SYMATTR InstName U2
SYMBOL res 1152 -64 R0
SYMATTR InstName R1
SYMATTR Value 10k
SYMBOL res 1152 48 R0
SYMATTR InstName R2
SYMATTR Value 10k
SYMBOL lib\\sym\\OPAx197 1872 2576 R180
SYMATTR InstName U13
SYMBOL Contrib\\Toshiba\\diode\\BAV99 1568 2480 M0
SYMATTR InstName U14
SYMBOL Contrib\\Toshiba\\diode\\BAV99 1568 2608 M0
SYMATTR InstName U15
SYMBOL npn 1392 2416 M0
SYMATTR InstName Q3
SYMBOL pnp 1392 2640 M0
SYMATTR InstName Q4
SYMBOL res 1568 2368 M0
SYMATTR InstName R26
SYMATTR Value 2k
SYMBOL res 1568 2672 M0
SYMATTR InstName R27
SYMATTR Value 2k
SYMBOL res 1760 2224 R90
WINDOW 0 0 56 VBottom 2
WINDOW 3 32 56 VTop 2
SYMATTR InstName R28
SYMATTR Value 1Meg
SYMBOL res 1760 1968 R90
WINDOW 0 0 56 VBottom 2
WINDOW 3 32 56 VTop 2
SYMATTR InstName R29
SYMATTR Value 100k
SYMBOL res 1760 1712 R90
WINDOW 0 0 56 VBottom 2
WINDOW 3 32 56 VTop 2
SYMATTR InstName R30
SYMATTR Value 10k
SYMBOL res 1760 1456 R90
WINDOW 0 0 56 VBottom 2
WINDOW 3 32 56 VTop 2
SYMATTR InstName R31
SYMATTR Value 1k
SYMBOL res 1760 1200 R90
WINDOW 0 0 56 VBottom 2
WINDOW 3 32 56 VTop 2
SYMATTR InstName R32
SYMATTR Value 100
SYMBOL res -240 2816 R90
WINDOW 0 0 56 VBottom 2
WINDOW 3 32 56 VTop 2
SYMATTR InstName R34
SYMATTR Value 2700k
SYMBOL res -240 2960 R90
WINDOW 0 0 56 VBottom 2
WINDOW 3 32 56 VTop 2
SYMATTR InstName R35
SYMATTR Value 300k
SYMBOL res -240 3120 R90
WINDOW 0 0 56 VBottom 2
WINDOW 3 32 56 VTop 2
SYMATTR InstName R36
SYMATTR Value 27k
SYMBOL res -240 3264 R90
WINDOW 0 0 56 VBottom 2
WINDOW 3 32 56 VTop 2
SYMATTR InstName R37
SYMATTR Value 2.7k
SYMBOL lib\\sym\\OPAx197 96 3312 M180
SYMATTR InstName U17
SYMBOL cap 128 2992 R90
WINDOW 0 0 32 VBottom 2
WINDOW 3 32 32 VTop 2
SYMATTR InstName C7
SYMATTR Value 5.6n
SYMBOL lib\\sym\\OPAx197 816 3344 M180
SYMATTR InstName U20
SYMBOL Contrib\\Toshiba\\diode\\BAV99 1120 3248 R0
SYMATTR InstName U21
SYMBOL Contrib\\Toshiba\\diode\\BAV99 1120 3376 R0
SYMATTR InstName U22
SYMBOL npn 1296 3184 R0
SYMATTR InstName Q5
SYMBOL pnp 1296 3408 R0
SYMATTR InstName Q6
SYMBOL res 1120 3136 R0
SYMATTR InstName R46
SYMATTR Value 2k
SYMBOL res 1120 3440 R0
SYMATTR InstName R47
SYMATTR Value 2k
SYMBOL res 592 2992 R90
WINDOW 0 0 56 VBottom 2
WINDOW 3 32 56 VTop 2
SYMATTR InstName R48
SYMATTR Value 10k
SYMBOL res 1120 2992 R90
WINDOW 0 0 56 VBottom 2
WINDOW 3 32 56 VTop 2
SYMATTR InstName R49
SYMATTR Value 10k
SYMBOL current 2160 1792 R90
WINDOW 0 -32 40 VBottom 2
WINDOW 3 32 40 VTop 2
WINDOW 123 82 40 VTop 2
WINDOW 39 0 0 Left 0
SYMATTR InstName I1
SYMATTR Value ""
SYMATTR Value2 AC 1m
SYMBOL cap 1744 1328 R90
WINDOW 0 0 32 VBottom 2
WINDOW 3 32 32 VTop 2
SYMATTR InstName C1
SYMATTR Value 330p
TEXT -1256 456 Left 2 ;.tran 1m
TEXT -1256 512 Left 2 ;.dc V4 0 3.3 0.01
TEXT -1256 568 Left 2 !.ac dec 10 1 10000k
